Version 4
SHEET 1 2324 680
WIRE 320 -224 240 -224
WIRE 528 -224 384 -224
WIRE 704 -224 528 -224
WIRE 1232 -192 1152 -192
WIRE 1440 -192 1296 -192
WIRE 1616 -192 1440 -192
WIRE 528 -144 528 -224
WIRE 1440 -112 1440 -192
WIRE 48 16 -112 16
WIRE 240 16 240 -224
WIRE 240 16 128 16
WIRE 304 16 240 16
WIRE 528 16 528 -64
WIRE 528 16 368 16
WIRE 560 16 528 16
WIRE 592 48 528 48
WIRE 704 48 704 -224
WIRE 720 48 704 48
WIRE 960 48 720 48
WIRE 1152 48 1152 -192
WIRE 1152 48 1040 48
WIRE 1216 48 1152 48
WIRE 1440 48 1440 -32
WIRE 1440 48 1280 48
WIRE 1504 64 1472 64
WIRE 1616 64 1616 -192
WIRE 1664 64 1616 64
WIRE 1808 64 1664 64
WIRE -112 80 -112 16
WIRE 560 80 560 16
WIRE 592 80 560 80
WIRE 720 96 720 48
WIRE 720 96 656 96
WIRE 1440 96 1440 48
WIRE 1504 96 1440 96
WIRE 1664 112 1664 64
WIRE 1664 112 1568 112
WIRE 528 160 528 48
WIRE 240 192 240 16
WIRE 1152 224 1152 48
WIRE 1472 256 1472 64
WIRE -112 336 -112 160
WIRE 240 336 240 272
WIRE 240 336 -112 336
WIRE 240 368 240 336
WIRE 1152 400 1152 304
FLAG 240 368 0
FLAG 528 160 0
FLAG 1152 400 0
FLAG 1472 256 0
FLAG 752 528 0
FLAG 624 528 0
FLAG 624 448 V+
FLAG 656 32 V+
FLAG 1568 48 V+
FLAG 752 448 V-
FLAG 656 64 V-
FLAG 1568 80 V-
SYMBOL res 144 0 R90
WINDOW 0 0 56 VBottom 2
WINDOW 3 32 56 VTop 2
SYMATTR InstName R1
SYMATTR Value 390k
SYMATTR SpiceLine tol=10
SYMBOL res 256 288 R180
WINDOW 0 36 76 Left 2
WINDOW 3 36 40 Left 2
SYMATTR InstName R2
SYMATTR Value 120
SYMATTR SpiceLine tol=10
SYMBOL res 512 -160 R0
SYMATTR InstName R3
SYMATTR Value 100k
SYMATTR SpiceLine tol=10
SYMBOL cap 384 -240 R90
WINDOW 0 0 32 VBottom 2
WINDOW 3 32 32 VTop 2
SYMATTR InstName C1
SYMATTR Value 470n
SYMBOL cap 368 0 R90
WINDOW 0 0 32 VBottom 2
WINDOW 3 32 32 VTop 2
SYMATTR InstName C2
SYMATTR Value 470n
SYMBOL voltage -112 64 R0
WINDOW 123 24 180 Left 2
WINDOW 39 0 0 Left 0
WINDOW 3 24 152 Left 2
SYMATTR Value2 AC 1
SYMATTR Value ""
SYMATTR InstName V1
SYMBOL res 1056 32 R90
WINDOW 0 0 56 VBottom 2
WINDOW 3 32 56 VTop 2
SYMATTR InstName R4
SYMATTR Value 15k
SYMATTR SpiceLine tol=10
SYMBOL res 1168 320 R180
WINDOW 0 36 76 Left 2
WINDOW 3 36 40 Left 2
SYMATTR InstName R5
SYMATTR Value 560
SYMATTR SpiceLine tol=10
SYMBOL res 1424 -128 R0
SYMATTR InstName R6
SYMATTR Value 430k
SYMATTR SpiceLine tol=5
SYMBOL cap 1296 -208 R90
WINDOW 0 0 32 VBottom 2
WINDOW 3 32 32 VTop 2
SYMATTR InstName C3
SYMATTR Value 100n
SYMBOL cap 1280 32 R90
WINDOW 0 0 32 VBottom 2
WINDOW 3 32 32 VTop 2
SYMATTR InstName C4
SYMATTR Value 100n
SYMBOL OpAmps\\TL081 624 64 R0
SYMATTR InstName U1
SYMBOL OpAmps\\TL081 1536 80 R0
SYMATTR InstName U2
SYMBOL voltage 624 432 R0
WINDOW 123 0 0 Left 0
WINDOW 39 0 0 Left 0
SYMATTR InstName V2
SYMATTR Value 15
SYMBOL voltage 752 432 R0
WINDOW 123 0 0 Left 0
WINDOW 39 0 0 Left 0
SYMATTR InstName V3
SYMATTR Value -15
TEXT 672 -304 Left 2 !.lib opamp.sub
TEXT -88 424 Left 2 !.ac dec 1000 1 10000
